
---------- Begin Simulation Statistics ----------
sim_seconds                                  0.397617                       # Number of seconds simulated
sim_ticks                                397616595000                       # Number of ticks simulated
final_tick                               397616595000                       # Number of ticks from beginning of simulation (restored from checkpoints and never reset)
sim_freq                                 1000000000000                       # Frequency of simulated ticks
host_inst_rate                                 262187                       # Simulator instruction rate (inst/s)
host_op_rate                                   523295                       # Simulator op (including micro ops) rate (op/s)
host_tick_rate                            25169312318                       # Simulator tick rate (ticks/s)
host_mem_usage                                 671660                       # Number of bytes of host memory used
host_seconds                                    15.80                       # Real time elapsed on the host
sim_insts                                     4141946                       # Number of instructions simulated
sim_ops                                       8266836                       # Number of ops (including micro ops) simulated
system.voltage_domain.voltage                       1                       # Voltage in Volts
system.clk_domain.clock                          1000                       # Clock period in ticks
system.mem_ctrls.pwrStateResidencyTicks::UNDEFINED 397616595000                       # Cumulative time (in ticks) in various power states
system.mem_ctrls.bytes_read::cpu.inst        42688136                       # Number of bytes read from this memory
system.mem_ctrls.bytes_read::cpu.data         7806651                       # Number of bytes read from this memory
system.mem_ctrls.bytes_read::total           50494787                       # Number of bytes read from this memory
system.mem_ctrls.bytes_inst_read::cpu.inst     42688136                       # Number of instructions bytes read from this memory
system.mem_ctrls.bytes_inst_read::total      42688136                       # Number of instructions bytes read from this memory
system.mem_ctrls.bytes_written::cpu.data      3765070                       # Number of bytes written to this memory
system.mem_ctrls.bytes_written::total         3765070                       # Number of bytes written to this memory
system.mem_ctrls.num_reads::cpu.inst          5336017                       # Number of read requests responded to by this memory
system.mem_ctrls.num_reads::cpu.data          1291284                       # Number of read requests responded to by this memory
system.mem_ctrls.num_reads::total             6627301                       # Number of read requests responded to by this memory
system.mem_ctrls.num_writes::cpu.data          579233                       # Number of write requests responded to by this memory
system.mem_ctrls.num_writes::total             579233                       # Number of write requests responded to by this memory
system.mem_ctrls.bw_read::cpu.inst          107360046                       # Total read bandwidth from this memory (bytes/s)
system.mem_ctrls.bw_read::cpu.data           19633615                       # Total read bandwidth from this memory (bytes/s)
system.mem_ctrls.bw_read::total             126993661                       # Total read bandwidth from this memory (bytes/s)
system.mem_ctrls.bw_inst_read::cpu.inst     107360046                       # Instruction read bandwidth from this memory (bytes/s)
system.mem_ctrls.bw_inst_read::total        107360046                       # Instruction read bandwidth from this memory (bytes/s)
system.mem_ctrls.bw_write::cpu.data           9469097                       # Write bandwidth from this memory (bytes/s)
system.mem_ctrls.bw_write::total              9469097                       # Write bandwidth from this memory (bytes/s)
system.mem_ctrls.bw_total::cpu.inst         107360046                       # Total bandwidth to/from this memory (bytes/s)
system.mem_ctrls.bw_total::cpu.data          29102711                       # Total bandwidth to/from this memory (bytes/s)
system.mem_ctrls.bw_total::total            136462758                       # Total bandwidth to/from this memory (bytes/s)
system.mem_ctrls.readReqs                     6627302                       # Number of read requests accepted
system.mem_ctrls.writeReqs                     579233                       # Number of write requests accepted
system.mem_ctrls.readBursts                   6627302                       # Number of DRAM read bursts, including those serviced by the write queue
system.mem_ctrls.writeBursts                   579233                       # Number of DRAM write bursts, including those merged in the write queue
system.mem_ctrls.bytesReadDRAM              416128896                       # Total number of bytes read from DRAM
system.mem_ctrls.bytesReadWrQ                 8018432                       # Total number of bytes read from write queue
system.mem_ctrls.bytesWritten                  466048                       # Total number of bytes written to DRAM
system.mem_ctrls.bytesReadSys                50494795                       # Total read bytes from the system interface side
system.mem_ctrls.bytesWrittenSys              3765070                       # Total written bytes from the system interface side
system.mem_ctrls.servicedByWrQ                 125288                       # Number of DRAM read bursts serviced by the write queue
system.mem_ctrls.mergedWrBursts                571928                       # Number of DRAM write bursts merged with an existing one
system.mem_ctrls.neitherReadNorWriteReqs            0                       # Number of requests that are neither read nor write
system.mem_ctrls.perBankRdBursts::0           1804856                       # Per bank write bursts
system.mem_ctrls.perBankRdBursts::1             50863                       # Per bank write bursts
system.mem_ctrls.perBankRdBursts::2            230480                       # Per bank write bursts
system.mem_ctrls.perBankRdBursts::3            480502                       # Per bank write bursts
system.mem_ctrls.perBankRdBursts::4            427544                       # Per bank write bursts
system.mem_ctrls.perBankRdBursts::5            673546                       # Per bank write bursts
system.mem_ctrls.perBankRdBursts::6             43248                       # Per bank write bursts
system.mem_ctrls.perBankRdBursts::7           1203665                       # Per bank write bursts
system.mem_ctrls.perBankRdBursts::8            274038                       # Per bank write bursts
system.mem_ctrls.perBankRdBursts::9            173956                       # Per bank write bursts
system.mem_ctrls.perBankRdBursts::10            65787                       # Per bank write bursts
system.mem_ctrls.perBankRdBursts::11            68552                       # Per bank write bursts
system.mem_ctrls.perBankRdBursts::12            19888                       # Per bank write bursts
system.mem_ctrls.perBankRdBursts::13            15620                       # Per bank write bursts
system.mem_ctrls.perBankRdBursts::14           234723                       # Per bank write bursts
system.mem_ctrls.perBankRdBursts::15           734746                       # Per bank write bursts
system.mem_ctrls.perBankWrBursts::0               215                       # Per bank write bursts
system.mem_ctrls.perBankWrBursts::1               267                       # Per bank write bursts
system.mem_ctrls.perBankWrBursts::2               240                       # Per bank write bursts
system.mem_ctrls.perBankWrBursts::3               128                       # Per bank write bursts
system.mem_ctrls.perBankWrBursts::4               453                       # Per bank write bursts
system.mem_ctrls.perBankWrBursts::5              2571                       # Per bank write bursts
system.mem_ctrls.perBankWrBursts::6               151                       # Per bank write bursts
system.mem_ctrls.perBankWrBursts::7               549                       # Per bank write bursts
system.mem_ctrls.perBankWrBursts::8               421                       # Per bank write bursts
system.mem_ctrls.perBankWrBursts::9               557                       # Per bank write bursts
system.mem_ctrls.perBankWrBursts::10              676                       # Per bank write bursts
system.mem_ctrls.perBankWrBursts::11              301                       # Per bank write bursts
system.mem_ctrls.perBankWrBursts::12              133                       # Per bank write bursts
system.mem_ctrls.perBankWrBursts::13              139                       # Per bank write bursts
system.mem_ctrls.perBankWrBursts::14              236                       # Per bank write bursts
system.mem_ctrls.perBankWrBursts::15              245                       # Per bank write bursts
system.mem_ctrls.numRdRetry                         0                       # Number of times read queue was full causing retry
system.mem_ctrls.numWrRetry                         0                       # Number of times write queue was full causing retry
system.mem_ctrls.totGap                  397616518000                       # Total gap between requests
system.mem_ctrls.readPktSize::0                131926                       # Read request sizes (log2)
system.mem_ctrls.readPktSize::1                  7665                       # Read request sizes (log2)
system.mem_ctrls.readPktSize::2                388532                       # Read request sizes (log2)
system.mem_ctrls.readPktSize::3               6099179                       # Read request sizes (log2)
system.mem_ctrls.readPktSize::4                     0                       # Read request sizes (log2)
system.mem_ctrls.readPktSize::5                     0                       # Read request sizes (log2)
system.mem_ctrls.readPktSize::6                     0                       # Read request sizes (log2)
system.mem_ctrls.writePktSize::0                24146                       # Write request sizes (log2)
system.mem_ctrls.writePktSize::1                   47                       # Write request sizes (log2)
system.mem_ctrls.writePktSize::2               174870                       # Write request sizes (log2)
system.mem_ctrls.writePktSize::3               380170                       # Write request sizes (log2)
system.mem_ctrls.writePktSize::4                    0                       # Write request sizes (log2)
system.mem_ctrls.writePktSize::5                    0                       # Write request sizes (log2)
system.mem_ctrls.writePktSize::6                    0                       # Write request sizes (log2)
system.mem_ctrls.rdQLenPdf::0                 6501999                       # What read queue length does an incoming req see
system.mem_ctrls.rdQLenPdf::1                      15                       # What read queue length does an incoming req see
system.mem_ctrls.rdQLenPdf::2                       0                       # What read queue length does an incoming req see
system.mem_ctrls.rdQLenPdf::3                       0                       # What read queue length does an incoming req see
system.mem_ctrls.rdQLenPdf::4                       0                       # What read queue length does an incoming req see
system.mem_ctrls.rdQLenPdf::5                       0                       # What read queue length does an incoming req see
system.mem_ctrls.rdQLenPdf::6                       0                       # What read queue length does an incoming req see
system.mem_ctrls.rdQLenPdf::7                       0                       # What read queue length does an incoming req see
system.mem_ctrls.rdQLenPdf::8                       0                       # What read queue length does an incoming req see
system.mem_ctrls.rdQLenPdf::9                       0                       # What read queue length does an incoming req see
system.mem_ctrls.rdQLenPdf::10                      0                       # What read queue length does an incoming req see
system.mem_ctrls.rdQLenPdf::11                      0                       # What read queue length does an incoming req see
system.mem_ctrls.rdQLenPdf::12                      0                       # What read queue length does an incoming req see
system.mem_ctrls.rdQLenPdf::13                      0                       # What read queue length does an incoming req see
system.mem_ctrls.rdQLenPdf::14                      0                       # What read queue length does an incoming req see
system.mem_ctrls.rdQLenPdf::15                      0                       # What read queue length does an incoming req see
system.mem_ctrls.rdQLenPdf::16                      0                       # What read queue length does an incoming req see
system.mem_ctrls.rdQLenPdf::17                      0                       # What read queue length does an incoming req see
system.mem_ctrls.rdQLenPdf::18                      0                       # What read queue length does an incoming req see
system.mem_ctrls.rdQLenPdf::19                      0                       # What read queue length does an incoming req see
system.mem_ctrls.rdQLenPdf::20                      0                       # What read queue length does an incoming req see
system.mem_ctrls.rdQLenPdf::21                      0                       # What read queue length does an incoming req see
system.mem_ctrls.rdQLenPdf::22                      0                       # What read queue length does an incoming req see
system.mem_ctrls.rdQLenPdf::23                      0                       # What read queue length does an incoming req see
system.mem_ctrls.rdQLenPdf::24                      0                       # What read queue length does an incoming req see
system.mem_ctrls.rdQLenPdf::25                      0                       # What read queue length does an incoming req see
system.mem_ctrls.rdQLenPdf::26                      0                       # What read queue length does an incoming req see
system.mem_ctrls.rdQLenPdf::27                      0                       # What read queue length does an incoming req see
system.mem_ctrls.rdQLenPdf::28                      0                       # What read queue length does an incoming req see
system.mem_ctrls.rdQLenPdf::29                      0                       # What read queue length does an incoming req see
system.mem_ctrls.rdQLenPdf::30                      0                       # What read queue length does an incoming req see
system.mem_ctrls.rdQLenPdf::31                      0                       # What read queue length does an incoming req see
system.mem_ctrls.wrQLenPdf::0                       1                       # What write queue length does an incoming req see
system.mem_ctrls.wrQLenPdf::1                       1                       # What write queue length does an incoming req see
system.mem_ctrls.wrQLenPdf::2                       1                       # What write queue length does an incoming req see
system.mem_ctrls.wrQLenPdf::3                       1                       # What write queue length does an incoming req see
system.mem_ctrls.wrQLenPdf::4                       1                       # What write queue length does an incoming req see
system.mem_ctrls.wrQLenPdf::5                       1                       # What write queue length does an incoming req see
system.mem_ctrls.wrQLenPdf::6                       1                       # What write queue length does an incoming req see
system.mem_ctrls.wrQLenPdf::7                       1                       # What write queue length does an incoming req see
system.mem_ctrls.wrQLenPdf::8                       1                       # What write queue length does an incoming req see
system.mem_ctrls.wrQLenPdf::9                       1                       # What write queue length does an incoming req see
system.mem_ctrls.wrQLenPdf::10                      1                       # What write queue length does an incoming req see
system.mem_ctrls.wrQLenPdf::11                      1                       # What write queue length does an incoming req see
system.mem_ctrls.wrQLenPdf::12                      1                       # What write queue length does an incoming req see
system.mem_ctrls.wrQLenPdf::13                      1                       # What write queue length does an incoming req see
system.mem_ctrls.wrQLenPdf::14                      1                       # What write queue length does an incoming req see
system.mem_ctrls.wrQLenPdf::15                      9                       # What write queue length does an incoming req see
system.mem_ctrls.wrQLenPdf::16                      9                       # What write queue length does an incoming req see
system.mem_ctrls.wrQLenPdf::17                    455                       # What write queue length does an incoming req see
system.mem_ctrls.wrQLenPdf::18                    456                       # What write queue length does an incoming req see
system.mem_ctrls.wrQLenPdf::19                    455                       # What write queue length does an incoming req see
system.mem_ctrls.wrQLenPdf::20                    455                       # What write queue length does an incoming req see
system.mem_ctrls.wrQLenPdf::21                    455                       # What write queue length does an incoming req see
system.mem_ctrls.wrQLenPdf::22                    455                       # What write queue length does an incoming req see
system.mem_ctrls.wrQLenPdf::23                    454                       # What write queue length does an incoming req see
system.mem_ctrls.wrQLenPdf::24                    454                       # What write queue length does an incoming req see
system.mem_ctrls.wrQLenPdf::25                    455                       # What write queue length does an incoming req see
system.mem_ctrls.wrQLenPdf::26                    454                       # What write queue length does an incoming req see
system.mem_ctrls.wrQLenPdf::27                    454                       # What write queue length does an incoming req see
system.mem_ctrls.wrQLenPdf::28                    454                       # What write queue length does an incoming req see
system.mem_ctrls.wrQLenPdf::29                    454                       # What write queue length does an incoming req see
system.mem_ctrls.wrQLenPdf::30                    454                       # What write queue length does an incoming req see
system.mem_ctrls.wrQLenPdf::31                    454                       # What write queue length does an incoming req see
system.mem_ctrls.wrQLenPdf::32                    454                       # What write queue length does an incoming req see
system.mem_ctrls.wrQLenPdf::33                      0                       # What write queue length does an incoming req see
system.mem_ctrls.wrQLenPdf::34                      0                       # What write queue length does an incoming req see
system.mem_ctrls.wrQLenPdf::35                      0                       # What write queue length does an incoming req see
system.mem_ctrls.wrQLenPdf::36                      0                       # What write queue length does an incoming req see
system.mem_ctrls.wrQLenPdf::37                      0                       # What write queue length does an incoming req see
system.mem_ctrls.wrQLenPdf::38                      0                       # What write queue length does an incoming req see
system.mem_ctrls.wrQLenPdf::39                      0                       # What write queue length does an incoming req see
system.mem_ctrls.wrQLenPdf::40                      0                       # What write queue length does an incoming req see
system.mem_ctrls.wrQLenPdf::41                      0                       # What write queue length does an incoming req see
system.mem_ctrls.wrQLenPdf::42                      0                       # What write queue length does an incoming req see
system.mem_ctrls.wrQLenPdf::43                      0                       # What write queue length does an incoming req see
system.mem_ctrls.wrQLenPdf::44                      0                       # What write queue length does an incoming req see
system.mem_ctrls.wrQLenPdf::45                      0                       # What write queue length does an incoming req see
system.mem_ctrls.wrQLenPdf::46                      0                       # What write queue length does an incoming req see
system.mem_ctrls.wrQLenPdf::47                      0                       # What write queue length does an incoming req see
system.mem_ctrls.wrQLenPdf::48                      0                       # What write queue length does an incoming req see
system.mem_ctrls.wrQLenPdf::49                      0                       # What write queue length does an incoming req see
system.mem_ctrls.wrQLenPdf::50                      0                       # What write queue length does an incoming req see
system.mem_ctrls.wrQLenPdf::51                      0                       # What write queue length does an incoming req see
system.mem_ctrls.wrQLenPdf::52                      0                       # What write queue length does an incoming req see
system.mem_ctrls.wrQLenPdf::53                      0                       # What write queue length does an incoming req see
system.mem_ctrls.wrQLenPdf::54                      0                       # What write queue length does an incoming req see
system.mem_ctrls.wrQLenPdf::55                      0                       # What write queue length does an incoming req see
system.mem_ctrls.wrQLenPdf::56                      0                       # What write queue length does an incoming req see
system.mem_ctrls.wrQLenPdf::57                      0                       # What write queue length does an incoming req see
system.mem_ctrls.wrQLenPdf::58                      0                       # What write queue length does an incoming req see
system.mem_ctrls.wrQLenPdf::59                      0                       # What write queue length does an incoming req see
system.mem_ctrls.wrQLenPdf::60                      0                       # What write queue length does an incoming req see
system.mem_ctrls.wrQLenPdf::61                      0                       # What write queue length does an incoming req see
system.mem_ctrls.wrQLenPdf::62                      0                       # What write queue length does an incoming req see
system.mem_ctrls.wrQLenPdf::63                      0                       # What write queue length does an incoming req see
system.mem_ctrls.bytesPerActivate::samples       718691                       # Bytes accessed per row activation
system.mem_ctrls.bytesPerActivate::mean    579.655535                       # Bytes accessed per row activation
system.mem_ctrls.bytesPerActivate::gmean   378.103880                       # Bytes accessed per row activation
system.mem_ctrls.bytesPerActivate::stdev   403.300185                       # Bytes accessed per row activation
system.mem_ctrls.bytesPerActivate::0-127       131862     18.35%     18.35% # Bytes accessed per row activation
system.mem_ctrls.bytesPerActivate::128-255        98775     13.74%     32.09% # Bytes accessed per row activation
system.mem_ctrls.bytesPerActivate::256-383        54869      7.63%     39.73% # Bytes accessed per row activation
system.mem_ctrls.bytesPerActivate::384-511        45393      6.32%     46.04% # Bytes accessed per row activation
system.mem_ctrls.bytesPerActivate::512-639        38780      5.40%     51.44% # Bytes accessed per row activation
system.mem_ctrls.bytesPerActivate::640-767        20976      2.92%     54.36% # Bytes accessed per row activation
system.mem_ctrls.bytesPerActivate::768-895        38744      5.39%     59.75% # Bytes accessed per row activation
system.mem_ctrls.bytesPerActivate::896-1023        25577      3.56%     63.31% # Bytes accessed per row activation
system.mem_ctrls.bytesPerActivate::1024-1151       263715     36.69%    100.00% # Bytes accessed per row activation
system.mem_ctrls.bytesPerActivate::total       718691                       # Bytes accessed per row activation
system.mem_ctrls.rdPerTurnAround::samples          454                       # Reads before turning the bus around for writes
system.mem_ctrls.rdPerTurnAround::mean   14309.770925                       # Reads before turning the bus around for writes
system.mem_ctrls.rdPerTurnAround::stdev  12150.944086                       # Reads before turning the bus around for writes
system.mem_ctrls.rdPerTurnAround::0-4095          162     35.68%     35.68% # Reads before turning the bus around for writes
system.mem_ctrls.rdPerTurnAround::4096-8191           29      6.39%     42.07% # Reads before turning the bus around for writes
system.mem_ctrls.rdPerTurnAround::8192-12287           22      4.85%     46.92% # Reads before turning the bus around for writes
system.mem_ctrls.rdPerTurnAround::12288-16383           11      2.42%     49.34% # Reads before turning the bus around for writes
system.mem_ctrls.rdPerTurnAround::16384-20479           10      2.20%     51.54% # Reads before turning the bus around for writes
system.mem_ctrls.rdPerTurnAround::20480-24575          196     43.17%     94.71% # Reads before turning the bus around for writes
system.mem_ctrls.rdPerTurnAround::24576-28671            5      1.10%     95.81% # Reads before turning the bus around for writes
system.mem_ctrls.rdPerTurnAround::28672-32767            6      1.32%     97.14% # Reads before turning the bus around for writes
system.mem_ctrls.rdPerTurnAround::32768-36863            1      0.22%     97.36% # Reads before turning the bus around for writes
system.mem_ctrls.rdPerTurnAround::36864-40959            1      0.22%     97.58% # Reads before turning the bus around for writes
system.mem_ctrls.rdPerTurnAround::40960-45055            2      0.44%     98.02% # Reads before turning the bus around for writes
system.mem_ctrls.rdPerTurnAround::45056-49151            3      0.66%     98.68% # Reads before turning the bus around for writes
system.mem_ctrls.rdPerTurnAround::49152-53247            2      0.44%     99.12% # Reads before turning the bus around for writes
system.mem_ctrls.rdPerTurnAround::57344-61439            1      0.22%     99.34% # Reads before turning the bus around for writes
system.mem_ctrls.rdPerTurnAround::61440-65535            1      0.22%     99.56% # Reads before turning the bus around for writes
system.mem_ctrls.rdPerTurnAround::65536-69631            1      0.22%     99.78% # Reads before turning the bus around for writes
system.mem_ctrls.rdPerTurnAround::90112-94207            1      0.22%    100.00% # Reads before turning the bus around for writes
system.mem_ctrls.rdPerTurnAround::total           454                       # Reads before turning the bus around for writes
system.mem_ctrls.wrPerTurnAround::samples          454                       # Writes before turning the bus around for reads
system.mem_ctrls.wrPerTurnAround::mean      16.039648                       # Writes before turning the bus around for reads
system.mem_ctrls.wrPerTurnAround::gmean     16.037061                       # Writes before turning the bus around for reads
system.mem_ctrls.wrPerTurnAround::stdev      0.301894                       # Writes before turning the bus around for reads
system.mem_ctrls.wrPerTurnAround::16              446     98.24%     98.24% # Writes before turning the bus around for reads
system.mem_ctrls.wrPerTurnAround::18                6      1.32%     99.56% # Writes before turning the bus around for reads
system.mem_ctrls.wrPerTurnAround::19                2      0.44%    100.00% # Writes before turning the bus around for reads
system.mem_ctrls.wrPerTurnAround::total           454                       # Writes before turning the bus around for reads
system.mem_ctrls.totQLat                  64148752750                       # Total ticks spent queuing
system.mem_ctrls.totMemAccLat            186061515250                       # Total ticks spent from burst creation until serviced by the DRAM
system.mem_ctrls.totBusLat                32510070000                       # Total ticks spent in databus transfers
system.mem_ctrls.avgQLat                      9865.98                       # Average queueing delay per DRAM burst
system.mem_ctrls.avgBusLat                    5000.00                       # Average bus latency per DRAM burst
system.mem_ctrls.avgMemAccLat                28615.98                       # Average memory access latency per DRAM burst
system.mem_ctrls.avgRdBW                      1046.56                       # Average DRAM read bandwidth in MiByte/s
system.mem_ctrls.avgWrBW                         1.17                       # Average achieved write bandwidth in MiByte/s
system.mem_ctrls.avgRdBWSys                    126.99                       # Average system read bandwidth in MiByte/s
system.mem_ctrls.avgWrBWSys                      9.47                       # Average system write bandwidth in MiByte/s
system.mem_ctrls.peakBW                      12800.00                       # Theoretical peak bandwidth in MiByte/s
system.mem_ctrls.busUtil                         8.19                       # Data bus utilization in percentage
system.mem_ctrls.busUtilRead                     8.18                       # Data bus utilization in percentage for reads
system.mem_ctrls.busUtilWrite                    0.01                       # Data bus utilization in percentage for writes
system.mem_ctrls.avgRdQLen                       1.00                       # Average read queue length when enqueuing
system.mem_ctrls.avgWrQLen                      26.66                       # Average write queue length when enqueuing
system.mem_ctrls.readRowHits                  5784092                       # Number of row buffer hits during reads
system.mem_ctrls.writeRowHits                    6508                       # Number of row buffer hits during writes
system.mem_ctrls.readRowHitRate                 88.96                       # Row buffer hit rate for reads
system.mem_ctrls.writeRowHitRate                89.09                       # Row buffer hit rate for writes
system.mem_ctrls.avgGap                      55174.44                       # Average gap between requests
system.mem_ctrls.pageHitRate                    88.96                       # Row buffer hit rate, read and write combined
system.mem_ctrls_0.actEnergy               3688831020                       # Energy for activate commands per rank (pJ)
system.mem_ctrls_0.preEnergy               1960648800                       # Energy for precharge commands per rank (pJ)
system.mem_ctrls_0.readEnergy             35090979420                       # Energy for read commands per rank (pJ)
system.mem_ctrls_0.writeEnergy               23876280                       # Energy for write commands per rank (pJ)
system.mem_ctrls_0.refreshEnergy         31367537760.000008                       # Energy for refresh commands per rank (pJ)
system.mem_ctrls_0.actBackEnergy          67312867500                       # Energy for active background per rank (pJ)
system.mem_ctrls_0.preBackEnergy            789777600                       # Energy for precharge background per rank (pJ)
system.mem_ctrls_0.actPowerDownEnergy    110110131900                       # Energy for active power-down per rank (pJ)
system.mem_ctrls_0.prePowerDownEnergy      2342197440                       # Energy for precharge power-down per rank (pJ)
system.mem_ctrls_0.selfRefreshEnergy         99360480                       # Energy for self refresh per rank (pJ)
system.mem_ctrls_0.totalEnergy           252786208200                       # Total energy per rank (pJ)
system.mem_ctrls_0.averagePower            635.753667                       # Core power per rank (mW)
system.mem_ctrls_0.totalIdleTime         248042713000                       # Total Idle time Per DRAM Rank
system.mem_ctrls_0.memoryStateTime::IDLE    287120500                       # Time in different power states
system.mem_ctrls_0.memoryStateTime::REF   13268960000                       # Time in different power states
system.mem_ctrls_0.memoryStateTime::SREF    374881000                       # Time in different power states
system.mem_ctrls_0.memoryStateTime::PRE_PDN   6101667000                       # Time in different power states
system.mem_ctrls_0.memoryStateTime::ACT  136017801500                       # Time in different power states
system.mem_ctrls_0.memoryStateTime::ACT_PDN 241566165000                       # Time in different power states
system.mem_ctrls_1.actEnergy               1442658420                       # Energy for activate commands per rank (pJ)
system.mem_ctrls_1.preEnergy                766783545                       # Energy for precharge commands per rank (pJ)
system.mem_ctrls_1.readEnergy             11333393400                       # Energy for read commands per rank (pJ)
system.mem_ctrls_1.writeEnergy               14135760                       # Energy for write commands per rank (pJ)
system.mem_ctrls_1.refreshEnergy         30632428320.000008                       # Energy for refresh commands per rank (pJ)
system.mem_ctrls_1.actBackEnergy          28236274680                       # Energy for active background per rank (pJ)
system.mem_ctrls_1.preBackEnergy            801797760                       # Energy for precharge background per rank (pJ)
system.mem_ctrls_1.actPowerDownEnergy    121107147600                       # Energy for active power-down per rank (pJ)
system.mem_ctrls_1.prePowerDownEnergy     19813420800                       # Energy for precharge power-down per rank (pJ)
system.mem_ctrls_1.selfRefreshEnergy       4464322680                       # Energy for self refresh per rank (pJ)
system.mem_ctrls_1.totalEnergy           218613067545                       # Total energy per rank (pJ)
system.mem_ctrls_1.averagePower            549.808711                       # Core power per rank (mW)
system.mem_ctrls_1.totalIdleTime         333614532000                       # Total Idle time Per DRAM Rank
system.mem_ctrls_1.memoryStateTime::IDLE    562622750                       # Time in different power states
system.mem_ctrls_1.memoryStateTime::REF   12964222000                       # Time in different power states
system.mem_ctrls_1.memoryStateTime::SREF  16422035000                       # Time in different power states
system.mem_ctrls_1.memoryStateTime::PRE_PDN  51598084500                       # Time in different power states
system.mem_ctrls_1.memoryStateTime::ACT   50473658000                       # Time in different power states
system.mem_ctrls_1.memoryStateTime::ACT_PDN 265595972750                       # Time in different power states
system.pwrStateResidencyTicks::UNDEFINED 397616595000                       # Cumulative time (in ticks) in various power states
system.cpu_voltage_domain.voltage                   1                       # Voltage in Volts
system.cpu_clk_domain.clock                       500                       # Clock period in ticks
system.cpu.dtb.walker.pwrStateResidencyTicks::UNDEFINED 397616595000                       # Cumulative time (in ticks) in various power states
system.cpu.apic_clk_domain.clock                 8000                       # Clock period in ticks
system.cpu.interrupts.pwrStateResidencyTicks::UNDEFINED 397616595000                       # Cumulative time (in ticks) in various power states
system.cpu.itb.walker.pwrStateResidencyTicks::UNDEFINED 397616595000                       # Cumulative time (in ticks) in various power states
system.cpu.workload.num_syscalls                   62                       # Number of system calls
system.cpu.pwrStateResidencyTicks::ON    397616595000                       # Cumulative time (in ticks) in various power states
system.cpu.numCycles                        795233190                       # number of cpu cycles simulated
system.cpu.numWorkItemsStarted                      0                       # number of work items this cpu started
system.cpu.numWorkItemsCompleted                    0                       # number of work items this cpu completed
system.cpu.committedInsts                     4141946                       # Number of instructions committed
system.cpu.committedOps                       8266836                       # Number of ops (including micro ops) committed
system.cpu.num_int_alu_accesses               7504753                       # Number of integer alu accesses
system.cpu.num_fp_alu_accesses                1154829                       # Number of float alu accesses
system.cpu.num_func_calls                      258834                       # number of times a function call or return occured
system.cpu.num_conditional_control_insts       442066                       # number of instructions that are conditional controls
system.cpu.num_int_insts                      7504753                       # number of integer instructions
system.cpu.num_fp_insts                       1154829                       # number of float instructions
system.cpu.num_int_register_reads            15083864                       # number of times the integer registers were read
system.cpu.num_int_register_writes            5846871                       # number of times the integer registers were written
system.cpu.num_fp_register_reads              1007241                       # number of times the floating registers were read
system.cpu.num_fp_register_writes             1024354                       # number of times the floating registers were written
system.cpu.num_cc_register_reads              2791347                       # number of times the CC registers were read
system.cpu.num_cc_register_writes             2290535                       # number of times the CC registers were written
system.cpu.num_mem_refs                       1870498                       # number of memory refs
system.cpu.num_load_insts                     1291269                       # Number of load instructions
system.cpu.num_store_insts                     579229                       # Number of store instructions
system.cpu.num_idle_cycles                          0                       # Number of idle cycles
system.cpu.num_busy_cycles                  795233190                       # Number of busy cycles
system.cpu.not_idle_fraction                        1                       # Percentage of non-idle cycles
system.cpu.idle_fraction                            0                       # Percentage of idle cycles
system.cpu.Branches                            857787                       # Number of branches fetched
system.cpu.op_class::No_OpClass                 16990      0.21%      0.21% # Class of executed instruction
system.cpu.op_class::IntAlu                   5721510     69.21%     69.42% # Class of executed instruction
system.cpu.op_class::IntMult                      148      0.00%     69.42% # Class of executed instruction
system.cpu.op_class::IntDiv                     24010      0.29%     69.71% # Class of executed instruction
system.cpu.op_class::FloatAdd                  633680      7.67%     77.37% # Class of executed instruction
system.cpu.op_class::FloatCmp                       0      0.00%     77.37% # Class of executed instruction
system.cpu.op_class::FloatCvt                       0      0.00%     77.37% # Class of executed instruction
system.cpu.op_class::FloatMult                      0      0.00%     77.37% # Class of executed instruction
system.cpu.op_class::FloatMultAcc                   0      0.00%     77.37% # Class of executed instruction
system.cpu.op_class::FloatDiv                       0      0.00%     77.37% # Class of executed instruction
system.cpu.op_class::FloatMisc                      0      0.00%     77.37% # Class of executed instruction
system.cpu.op_class::FloatSqrt                      0      0.00%     77.37% # Class of executed instruction
system.cpu.op_class::SimdAdd                        0      0.00%     77.37% # Class of executed instruction
system.cpu.op_class::SimdAddAcc                     0      0.00%     77.37% # Class of executed instruction
system.cpu.op_class::SimdAlu                        0      0.00%     77.37% # Class of executed instruction
system.cpu.op_class::SimdCmp                        0      0.00%     77.37% # Class of executed instruction
system.cpu.op_class::SimdCvt                        0      0.00%     77.37% # Class of executed instruction
system.cpu.op_class::SimdMisc                       0      0.00%     77.37% # Class of executed instruction
system.cpu.op_class::SimdMult                       0      0.00%     77.37% # Class of executed instruction
system.cpu.op_class::SimdMultAcc                    0      0.00%     77.37% # Class of executed instruction
system.cpu.op_class::SimdShift                      0      0.00%     77.37% # Class of executed instruction
system.cpu.op_class::SimdShiftAcc                   0      0.00%     77.37% # Class of executed instruction
system.cpu.op_class::SimdSqrt                       0      0.00%     77.37% # Class of executed instruction
system.cpu.op_class::SimdFloatAdd                   0      0.00%     77.37% # Class of executed instruction
system.cpu.op_class::SimdFloatAlu                   0      0.00%     77.37% # Class of executed instruction
system.cpu.op_class::SimdFloatCmp                   0      0.00%     77.37% # Class of executed instruction
system.cpu.op_class::SimdFloatCvt                   0      0.00%     77.37% # Class of executed instruction
system.cpu.op_class::SimdFloatDiv                   0      0.00%     77.37% # Class of executed instruction
system.cpu.op_class::SimdFloatMisc                  0      0.00%     77.37% # Class of executed instruction
system.cpu.op_class::SimdFloatMult                  0      0.00%     77.37% # Class of executed instruction
system.cpu.op_class::SimdFloatMultAcc               0      0.00%     77.37% # Class of executed instruction
system.cpu.op_class::SimdFloatSqrt                  0      0.00%     77.37% # Class of executed instruction
system.cpu.op_class::MemRead                  1011983     12.24%     89.61% # Class of executed instruction
system.cpu.op_class::MemWrite                  486210      5.88%     95.50% # Class of executed instruction
system.cpu.op_class::FloatMemRead              279286      3.38%     98.87% # Class of executed instruction
system.cpu.op_class::FloatMemWrite              93019      1.13%    100.00% # Class of executed instruction
system.cpu.op_class::IprAccess                      0      0.00%    100.00% # Class of executed instruction
system.cpu.op_class::InstPrefetch                   0      0.00%    100.00% # Class of executed instruction
system.cpu.op_class::total                    8266836                       # Class of executed instruction
system.membus.snoop_filter.tot_requests             0                       # Total number of requests made to the snoop filter.
system.membus.snoop_filter.hit_single_requests            0                       # Number of requests hitting in the snoop filter with a single holder of the requested data.
system.membus.snoop_filter.hit_multi_requests            0                       # Number of requests hitting in the snoop filter with multiple (>1) holders of the requested data.
system.membus.snoop_filter.tot_snoops               0                       # Total number of snoops made to the snoop filter.
system.membus.snoop_filter.hit_single_snoops            0                       # Number of snoops hitting in the snoop filter with a single holder of the requested data.
system.membus.snoop_filter.hit_multi_snoops            0                       # Number of snoops hitting in the snoop filter with multiple (>1) holders of the requested data.
system.membus.pwrStateResidencyTicks::UNDEFINED 397616595000                       # Cumulative time (in ticks) in various power states
system.membus.trans_dist::ReadReq             6627302                       # Transaction distribution
system.membus.trans_dist::ReadResp            6627301                       # Transaction distribution
system.membus.trans_dist::WriteReq             579233                       # Transaction distribution
system.membus.trans_dist::WriteResp            579233                       # Transaction distribution
system.membus.pkt_count_system.cpu.icache_port::system.mem_ctrls.port     10672035                       # Packet count per connected master and slave (bytes)
system.membus.pkt_count_system.cpu.icache_port::total     10672035                       # Packet count per connected master and slave (bytes)
system.membus.pkt_count_system.cpu.dcache_port::system.mem_ctrls.port      3741034                       # Packet count per connected master and slave (bytes)
system.membus.pkt_count_system.cpu.dcache_port::total      3741034                       # Packet count per connected master and slave (bytes)
system.membus.pkt_count::total               14413069                       # Packet count per connected master and slave (bytes)
system.membus.pkt_size_system.cpu.icache_port::system.mem_ctrls.port     42688136                       # Cumulative packet size per connected master and slave (bytes)
system.membus.pkt_size_system.cpu.icache_port::total     42688136                       # Cumulative packet size per connected master and slave (bytes)
system.membus.pkt_size_system.cpu.dcache_port::system.mem_ctrls.port     11571721                       # Cumulative packet size per connected master and slave (bytes)
system.membus.pkt_size_system.cpu.dcache_port::total     11571721                       # Cumulative packet size per connected master and slave (bytes)
system.membus.pkt_size::total                54259857                       # Cumulative packet size per connected master and slave (bytes)
system.membus.snoops                                0                       # Total snoops (count)
system.membus.snoopTraffic                          0                       # Total snoop traffic (bytes)
system.membus.snoop_fanout::samples           7206535                       # Request fanout histogram
system.membus.snoop_fanout::mean                    0                       # Request fanout histogram
system.membus.snoop_fanout::stdev                   0                       # Request fanout histogram
system.membus.snoop_fanout::underflows              0      0.00%      0.00% # Request fanout histogram
system.membus.snoop_fanout::0                 7206535    100.00%    100.00% # Request fanout histogram
system.membus.snoop_fanout::1                       0      0.00%    100.00% # Request fanout histogram
system.membus.snoop_fanout::overflows               0      0.00%    100.00% # Request fanout histogram
system.membus.snoop_fanout::min_value               0                       # Request fanout histogram
system.membus.snoop_fanout::max_value               0                       # Request fanout histogram
system.membus.snoop_fanout::total             7206535                       # Request fanout histogram
system.membus.reqLayer2.occupancy          7785768000                       # Layer occupancy (ticks)
system.membus.reqLayer2.utilization               2.0                       # Layer utilization (%)
system.membus.respLayer1.occupancy        12129587250                       # Layer occupancy (ticks)
system.membus.respLayer1.utilization              3.1                       # Layer utilization (%)
system.membus.respLayer2.occupancy         3530438250                       # Layer occupancy (ticks)
system.membus.respLayer2.utilization              0.9                       # Layer utilization (%)

---------- End Simulation Statistics   ----------
