
---------- Begin Simulation Statistics ----------
sim_seconds                                  0.631110                       # Number of seconds simulated
sim_ticks                                631110124500                       # Number of ticks simulated
final_tick                               631110124500                       # Number of ticks from beginning of simulation (restored from checkpoints and never reset)
sim_freq                                 1000000000000                       # Frequency of simulated ticks
host_inst_rate                                 276039                       # Simulator instruction rate (inst/s)
host_op_rate                                   491319                       # Simulator op (including micro ops) rate (op/s)
host_tick_rate                            25771054358                       # Simulator tick rate (ticks/s)
host_mem_usage                                 673572                       # Number of bytes of host memory used
host_seconds                                    24.49                       # Real time elapsed on the host
sim_insts                                     6759945                       # Number of instructions simulated
sim_ops                                      12031951                       # Number of ops (including micro ops) simulated
system.voltage_domain.voltage                       1                       # Voltage in Volts
system.clk_domain.clock                          1000                       # Clock period in ticks
system.mem_ctrls.pwrStateResidencyTicks::UNDEFINED 631110124500                       # Cumulative time (in ticks) in various power states
system.mem_ctrls.bytes_read::cpu.inst        69527728                       # Number of bytes read from this memory
system.mem_ctrls.bytes_read::cpu.data        11665901                       # Number of bytes read from this memory
system.mem_ctrls.bytes_read::total           81193629                       # Number of bytes read from this memory
system.mem_ctrls.bytes_inst_read::cpu.inst     69527728                       # Number of instructions bytes read from this memory
system.mem_ctrls.bytes_inst_read::total      69527728                       # Number of instructions bytes read from this memory
system.mem_ctrls.bytes_written::cpu.data      5395718                       # Number of bytes written to this memory
system.mem_ctrls.bytes_written::total         5395718                       # Number of bytes written to this memory
system.mem_ctrls.num_reads::cpu.inst          8690966                       # Number of read requests responded to by this memory
system.mem_ctrls.num_reads::cpu.data          2017494                       # Number of read requests responded to by this memory
system.mem_ctrls.num_reads::total            10708460                       # Number of read requests responded to by this memory
system.mem_ctrls.num_writes::cpu.data          864426                       # Number of write requests responded to by this memory
system.mem_ctrls.num_writes::total             864426                       # Number of write requests responded to by this memory
system.mem_ctrls.bw_read::cpu.inst          110167347                       # Total read bandwidth from this memory (bytes/s)
system.mem_ctrls.bw_read::cpu.data           18484731                       # Total read bandwidth from this memory (bytes/s)
system.mem_ctrls.bw_read::total             128652078                       # Total read bandwidth from this memory (bytes/s)
system.mem_ctrls.bw_inst_read::cpu.inst     110167347                       # Instruction read bandwidth from this memory (bytes/s)
system.mem_ctrls.bw_inst_read::total        110167347                       # Instruction read bandwidth from this memory (bytes/s)
system.mem_ctrls.bw_write::cpu.data           8549567                       # Write bandwidth from this memory (bytes/s)
system.mem_ctrls.bw_write::total              8549567                       # Write bandwidth from this memory (bytes/s)
system.mem_ctrls.bw_total::cpu.inst         110167347                       # Total bandwidth to/from this memory (bytes/s)
system.mem_ctrls.bw_total::cpu.data          27034298                       # Total bandwidth to/from this memory (bytes/s)
system.mem_ctrls.bw_total::total            137201645                       # Total bandwidth to/from this memory (bytes/s)
system.mem_ctrls.readReqs                    10708460                       # Number of read requests accepted
system.mem_ctrls.writeReqs                     864426                       # Number of write requests accepted
system.mem_ctrls.readBursts                  10708460                       # Number of DRAM read bursts, including those serviced by the write queue
system.mem_ctrls.writeBursts                   864426                       # Number of DRAM write bursts, including those merged in the write queue
system.mem_ctrls.bytesReadDRAM              656817728                       # Total number of bytes read from DRAM
system.mem_ctrls.bytesReadWrQ                28523712                       # Total number of bytes read from write queue
system.mem_ctrls.bytesWritten                 1248448                       # Total number of bytes written to DRAM
system.mem_ctrls.bytesReadSys                81193629                       # Total read bytes from the system interface side
system.mem_ctrls.bytesWrittenSys              5395718                       # Total written bytes from the system interface side
system.mem_ctrls.servicedByWrQ                 445683                       # Number of DRAM read bursts serviced by the write queue
system.mem_ctrls.mergedWrBursts                844892                       # Number of DRAM write bursts merged with an existing one
system.mem_ctrls.neitherReadNorWriteReqs            0                       # Number of requests that are neither read nor write
system.mem_ctrls.perBankRdBursts::0           3633416                       # Per bank write bursts
system.mem_ctrls.perBankRdBursts::1             72840                       # Per bank write bursts
system.mem_ctrls.perBankRdBursts::2           1372623                       # Per bank write bursts
system.mem_ctrls.perBankRdBursts::3             21707                       # Per bank write bursts
system.mem_ctrls.perBankRdBursts::4             91857                       # Per bank write bursts
system.mem_ctrls.perBankRdBursts::5            818534                       # Per bank write bursts
system.mem_ctrls.perBankRdBursts::6             45117                       # Per bank write bursts
system.mem_ctrls.perBankRdBursts::7           1201874                       # Per bank write bursts
system.mem_ctrls.perBankRdBursts::8            275527                       # Per bank write bursts
system.mem_ctrls.perBankRdBursts::9             44476                       # Per bank write bursts
system.mem_ctrls.perBankRdBursts::10           125954                       # Per bank write bursts
system.mem_ctrls.perBankRdBursts::11            31209                       # Per bank write bursts
system.mem_ctrls.perBankRdBursts::12           504897                       # Per bank write bursts
system.mem_ctrls.perBankRdBursts::13          1832960                       # Per bank write bursts
system.mem_ctrls.perBankRdBursts::14            32708                       # Per bank write bursts
system.mem_ctrls.perBankRdBursts::15           157078                       # Per bank write bursts
system.mem_ctrls.perBankWrBursts::0              1322                       # Per bank write bursts
system.mem_ctrls.perBankWrBursts::1               593                       # Per bank write bursts
system.mem_ctrls.perBankWrBursts::2              2585                       # Per bank write bursts
system.mem_ctrls.perBankWrBursts::3               599                       # Per bank write bursts
system.mem_ctrls.perBankWrBursts::4               936                       # Per bank write bursts
system.mem_ctrls.perBankWrBursts::5              5680                       # Per bank write bursts
system.mem_ctrls.perBankWrBursts::6               623                       # Per bank write bursts
system.mem_ctrls.perBankWrBursts::7              1046                       # Per bank write bursts
system.mem_ctrls.perBankWrBursts::8               852                       # Per bank write bursts
system.mem_ctrls.perBankWrBursts::9               992                       # Per bank write bursts
system.mem_ctrls.perBankWrBursts::10             1108                       # Per bank write bursts
system.mem_ctrls.perBankWrBursts::11              725                       # Per bank write bursts
system.mem_ctrls.perBankWrBursts::12              554                       # Per bank write bursts
system.mem_ctrls.perBankWrBursts::13              569                       # Per bank write bursts
system.mem_ctrls.perBankWrBursts::14              651                       # Per bank write bursts
system.mem_ctrls.perBankWrBursts::15              672                       # Per bank write bursts
system.mem_ctrls.numRdRetry                         0                       # Number of times read queue was full causing retry
system.mem_ctrls.numWrRetry                         0                       # Number of times write queue was full causing retry
system.mem_ctrls.totGap                  631109979000                       # Total gap between requests
system.mem_ctrls.readPktSize::0                121100                       # Read request sizes (log2)
system.mem_ctrls.readPktSize::1                 10375                       # Read request sizes (log2)
system.mem_ctrls.readPktSize::2                891020                       # Read request sizes (log2)
system.mem_ctrls.readPktSize::3               9685965                       # Read request sizes (log2)
system.mem_ctrls.readPktSize::4                     0                       # Read request sizes (log2)
system.mem_ctrls.readPktSize::5                     0                       # Read request sizes (log2)
system.mem_ctrls.readPktSize::6                     0                       # Read request sizes (log2)
system.mem_ctrls.writePktSize::0                19630                       # Write request sizes (log2)
system.mem_ctrls.writePktSize::1                 3216                       # Write request sizes (log2)
system.mem_ctrls.writePktSize::2               340222                       # Write request sizes (log2)
system.mem_ctrls.writePktSize::3               501358                       # Write request sizes (log2)
system.mem_ctrls.writePktSize::4                    0                       # Write request sizes (log2)
system.mem_ctrls.writePktSize::5                    0                       # Write request sizes (log2)
system.mem_ctrls.writePktSize::6                    0                       # Write request sizes (log2)
system.mem_ctrls.rdQLenPdf::0                10262764                       # What read queue length does an incoming req see
system.mem_ctrls.rdQLenPdf::1                      13                       # What read queue length does an incoming req see
system.mem_ctrls.rdQLenPdf::2                       0                       # What read queue length does an incoming req see
system.mem_ctrls.rdQLenPdf::3                       0                       # What read queue length does an incoming req see
system.mem_ctrls.rdQLenPdf::4                       0                       # What read queue length does an incoming req see
system.mem_ctrls.rdQLenPdf::5                       0                       # What read queue length does an incoming req see
system.mem_ctrls.rdQLenPdf::6                       0                       # What read queue length does an incoming req see
system.mem_ctrls.rdQLenPdf::7                       0                       # What read queue length does an incoming req see
system.mem_ctrls.rdQLenPdf::8                       0                       # What read queue length does an incoming req see
system.mem_ctrls.rdQLenPdf::9                       0                       # What read queue length does an incoming req see
system.mem_ctrls.rdQLenPdf::10                      0                       # What read queue length does an incoming req see
system.mem_ctrls.rdQLenPdf::11                      0                       # What read queue length does an incoming req see
system.mem_ctrls.rdQLenPdf::12                      0                       # What read queue length does an incoming req see
system.mem_ctrls.rdQLenPdf::13                      0                       # What read queue length does an incoming req see
system.mem_ctrls.rdQLenPdf::14                      0                       # What read queue length does an incoming req see
system.mem_ctrls.rdQLenPdf::15                      0                       # What read queue length does an incoming req see
system.mem_ctrls.rdQLenPdf::16                      0                       # What read queue length does an incoming req see
system.mem_ctrls.rdQLenPdf::17                      0                       # What read queue length does an incoming req see
system.mem_ctrls.rdQLenPdf::18                      0                       # What read queue length does an incoming req see
system.mem_ctrls.rdQLenPdf::19                      0                       # What read queue length does an incoming req see
system.mem_ctrls.rdQLenPdf::20                      0                       # What read queue length does an incoming req see
system.mem_ctrls.rdQLenPdf::21                      0                       # What read queue length does an incoming req see
system.mem_ctrls.rdQLenPdf::22                      0                       # What read queue length does an incoming req see
system.mem_ctrls.rdQLenPdf::23                      0                       # What read queue length does an incoming req see
system.mem_ctrls.rdQLenPdf::24                      0                       # What read queue length does an incoming req see
system.mem_ctrls.rdQLenPdf::25                      0                       # What read queue length does an incoming req see
system.mem_ctrls.rdQLenPdf::26                      0                       # What read queue length does an incoming req see
system.mem_ctrls.rdQLenPdf::27                      0                       # What read queue length does an incoming req see
system.mem_ctrls.rdQLenPdf::28                      0                       # What read queue length does an incoming req see
system.mem_ctrls.rdQLenPdf::29                      0                       # What read queue length does an incoming req see
system.mem_ctrls.rdQLenPdf::30                      0                       # What read queue length does an incoming req see
system.mem_ctrls.rdQLenPdf::31                      0                       # What read queue length does an incoming req see
system.mem_ctrls.wrQLenPdf::0                       1                       # What write queue length does an incoming req see
system.mem_ctrls.wrQLenPdf::1                       1                       # What write queue length does an incoming req see
system.mem_ctrls.wrQLenPdf::2                       1                       # What write queue length does an incoming req see
system.mem_ctrls.wrQLenPdf::3                       1                       # What write queue length does an incoming req see
system.mem_ctrls.wrQLenPdf::4                       1                       # What write queue length does an incoming req see
system.mem_ctrls.wrQLenPdf::5                       1                       # What write queue length does an incoming req see
system.mem_ctrls.wrQLenPdf::6                       1                       # What write queue length does an incoming req see
system.mem_ctrls.wrQLenPdf::7                       1                       # What write queue length does an incoming req see
system.mem_ctrls.wrQLenPdf::8                       1                       # What write queue length does an incoming req see
system.mem_ctrls.wrQLenPdf::9                       1                       # What write queue length does an incoming req see
system.mem_ctrls.wrQLenPdf::10                      1                       # What write queue length does an incoming req see
system.mem_ctrls.wrQLenPdf::11                      1                       # What write queue length does an incoming req see
system.mem_ctrls.wrQLenPdf::12                      1                       # What write queue length does an incoming req see
system.mem_ctrls.wrQLenPdf::13                      1                       # What write queue length does an incoming req see
system.mem_ctrls.wrQLenPdf::14                      1                       # What write queue length does an incoming req see
system.mem_ctrls.wrQLenPdf::15                     10                       # What write queue length does an incoming req see
system.mem_ctrls.wrQLenPdf::16                     10                       # What write queue length does an incoming req see
system.mem_ctrls.wrQLenPdf::17                   1219                       # What write queue length does an incoming req see
system.mem_ctrls.wrQLenPdf::18                   1219                       # What write queue length does an incoming req see
system.mem_ctrls.wrQLenPdf::19                   1219                       # What write queue length does an incoming req see
system.mem_ctrls.wrQLenPdf::20                   1219                       # What write queue length does an incoming req see
system.mem_ctrls.wrQLenPdf::21                   1219                       # What write queue length does an incoming req see
system.mem_ctrls.wrQLenPdf::22                   1220                       # What write queue length does an incoming req see
system.mem_ctrls.wrQLenPdf::23                   1219                       # What write queue length does an incoming req see
system.mem_ctrls.wrQLenPdf::24                   1219                       # What write queue length does an incoming req see
system.mem_ctrls.wrQLenPdf::25                   1219                       # What write queue length does an incoming req see
system.mem_ctrls.wrQLenPdf::26                   1219                       # What write queue length does an incoming req see
system.mem_ctrls.wrQLenPdf::27                   1218                       # What write queue length does an incoming req see
system.mem_ctrls.wrQLenPdf::28                   1218                       # What write queue length does an incoming req see
system.mem_ctrls.wrQLenPdf::29                   1218                       # What write queue length does an incoming req see
system.mem_ctrls.wrQLenPdf::30                   1218                       # What write queue length does an incoming req see
system.mem_ctrls.wrQLenPdf::31                   1218                       # What write queue length does an incoming req see
system.mem_ctrls.wrQLenPdf::32                   1218                       # What write queue length does an incoming req see
system.mem_ctrls.wrQLenPdf::33                      0                       # What write queue length does an incoming req see
system.mem_ctrls.wrQLenPdf::34                      0                       # What write queue length does an incoming req see
system.mem_ctrls.wrQLenPdf::35                      0                       # What write queue length does an incoming req see
system.mem_ctrls.wrQLenPdf::36                      0                       # What write queue length does an incoming req see
system.mem_ctrls.wrQLenPdf::37                      0                       # What write queue length does an incoming req see
system.mem_ctrls.wrQLenPdf::38                      0                       # What write queue length does an incoming req see
system.mem_ctrls.wrQLenPdf::39                      0                       # What write queue length does an incoming req see
system.mem_ctrls.wrQLenPdf::40                      0                       # What write queue length does an incoming req see
system.mem_ctrls.wrQLenPdf::41                      0                       # What write queue length does an incoming req see
system.mem_ctrls.wrQLenPdf::42                      0                       # What write queue length does an incoming req see
system.mem_ctrls.wrQLenPdf::43                      0                       # What write queue length does an incoming req see
system.mem_ctrls.wrQLenPdf::44                      0                       # What write queue length does an incoming req see
system.mem_ctrls.wrQLenPdf::45                      0                       # What write queue length does an incoming req see
system.mem_ctrls.wrQLenPdf::46                      0                       # What write queue length does an incoming req see
system.mem_ctrls.wrQLenPdf::47                      0                       # What write queue length does an incoming req see
system.mem_ctrls.wrQLenPdf::48                      0                       # What write queue length does an incoming req see
system.mem_ctrls.wrQLenPdf::49                      0                       # What write queue length does an incoming req see
system.mem_ctrls.wrQLenPdf::50                      0                       # What write queue length does an incoming req see
system.mem_ctrls.wrQLenPdf::51                      0                       # What write queue length does an incoming req see
system.mem_ctrls.wrQLenPdf::52                      0                       # What write queue length does an incoming req see
system.mem_ctrls.wrQLenPdf::53                      0                       # What write queue length does an incoming req see
system.mem_ctrls.wrQLenPdf::54                      0                       # What write queue length does an incoming req see
system.mem_ctrls.wrQLenPdf::55                      0                       # What write queue length does an incoming req see
system.mem_ctrls.wrQLenPdf::56                      0                       # What write queue length does an incoming req see
system.mem_ctrls.wrQLenPdf::57                      0                       # What write queue length does an incoming req see
system.mem_ctrls.wrQLenPdf::58                      0                       # What write queue length does an incoming req see
system.mem_ctrls.wrQLenPdf::59                      0                       # What write queue length does an incoming req see
system.mem_ctrls.wrQLenPdf::60                      0                       # What write queue length does an incoming req see
system.mem_ctrls.wrQLenPdf::61                      0                       # What write queue length does an incoming req see
system.mem_ctrls.wrQLenPdf::62                      0                       # What write queue length does an incoming req see
system.mem_ctrls.wrQLenPdf::63                      0                       # What write queue length does an incoming req see
system.mem_ctrls.bytesPerActivate::samples      1056844                       # Bytes accessed per row activation
system.mem_ctrls.bytesPerActivate::mean    622.670154                       # Bytes accessed per row activation
system.mem_ctrls.bytesPerActivate::gmean   418.936166                       # Bytes accessed per row activation
system.mem_ctrls.bytesPerActivate::stdev   397.841121                       # Bytes accessed per row activation
system.mem_ctrls.bytesPerActivate::0-127       185791     17.58%     17.58% # Bytes accessed per row activation
system.mem_ctrls.bytesPerActivate::128-255       113961     10.78%     28.36% # Bytes accessed per row activation
system.mem_ctrls.bytesPerActivate::256-383        59004      5.58%     33.95% # Bytes accessed per row activation
system.mem_ctrls.bytesPerActivate::384-511        70951      6.71%     40.66% # Bytes accessed per row activation
system.mem_ctrls.bytesPerActivate::512-639        53068      5.02%     45.68% # Bytes accessed per row activation
system.mem_ctrls.bytesPerActivate::640-767        51386      4.86%     50.54% # Bytes accessed per row activation
system.mem_ctrls.bytesPerActivate::768-895        44585      4.22%     54.76% # Bytes accessed per row activation
system.mem_ctrls.bytesPerActivate::896-1023        61980      5.86%     60.63% # Bytes accessed per row activation
system.mem_ctrls.bytesPerActivate::1024-1151       416118     39.37%    100.00% # Bytes accessed per row activation
system.mem_ctrls.bytesPerActivate::total      1056844                       # Bytes accessed per row activation
system.mem_ctrls.rdPerTurnAround::samples         1218                       # Reads before turning the bus around for writes
system.mem_ctrls.rdPerTurnAround::mean    8423.948276                       # Reads before turning the bus around for writes
system.mem_ctrls.rdPerTurnAround::stdev   7087.500367                       # Reads before turning the bus around for writes
system.mem_ctrls.rdPerTurnAround::0-4095          438     35.96%     35.96% # Reads before turning the bus around for writes
system.mem_ctrls.rdPerTurnAround::4096-8191          207     17.00%     52.96% # Reads before turning the bus around for writes
system.mem_ctrls.rdPerTurnAround::8192-12287          464     38.10%     91.05% # Reads before turning the bus around for writes
system.mem_ctrls.rdPerTurnAround::12288-16383           52      4.27%     95.32% # Reads before turning the bus around for writes
system.mem_ctrls.rdPerTurnAround::16384-20479           32      2.63%     97.95% # Reads before turning the bus around for writes
system.mem_ctrls.rdPerTurnAround::20480-24575            5      0.41%     98.36% # Reads before turning the bus around for writes
system.mem_ctrls.rdPerTurnAround::24576-28671            5      0.41%     98.77% # Reads before turning the bus around for writes
system.mem_ctrls.rdPerTurnAround::28672-32767            2      0.16%     98.93% # Reads before turning the bus around for writes
system.mem_ctrls.rdPerTurnAround::32768-36863            1      0.08%     99.01% # Reads before turning the bus around for writes
system.mem_ctrls.rdPerTurnAround::36864-40959            1      0.08%     99.10% # Reads before turning the bus around for writes
system.mem_ctrls.rdPerTurnAround::40960-45055            3      0.25%     99.34% # Reads before turning the bus around for writes
system.mem_ctrls.rdPerTurnAround::45056-49151            2      0.16%     99.51% # Reads before turning the bus around for writes
system.mem_ctrls.rdPerTurnAround::53248-57343            1      0.08%     99.59% # Reads before turning the bus around for writes
system.mem_ctrls.rdPerTurnAround::61440-65535            1      0.08%     99.67% # Reads before turning the bus around for writes
system.mem_ctrls.rdPerTurnAround::65536-69631            1      0.08%     99.75% # Reads before turning the bus around for writes
system.mem_ctrls.rdPerTurnAround::77824-81919            1      0.08%     99.84% # Reads before turning the bus around for writes
system.mem_ctrls.rdPerTurnAround::86016-90111            1      0.08%     99.92% # Reads before turning the bus around for writes
system.mem_ctrls.rdPerTurnAround::90112-94207            1      0.08%    100.00% # Reads before turning the bus around for writes
system.mem_ctrls.rdPerTurnAround::total          1218                       # Reads before turning the bus around for writes
system.mem_ctrls.wrPerTurnAround::samples         1218                       # Writes before turning the bus around for reads
system.mem_ctrls.wrPerTurnAround::mean      16.015599                       # Writes before turning the bus around for reads
system.mem_ctrls.wrPerTurnAround::gmean     16.014642                       # Writes before turning the bus around for reads
system.mem_ctrls.wrPerTurnAround::stdev      0.182882                       # Writes before turning the bus around for reads
system.mem_ctrls.wrPerTurnAround::16             1209     99.26%     99.26% # Writes before turning the bus around for reads
system.mem_ctrls.wrPerTurnAround::18                8      0.66%     99.92% # Writes before turning the bus around for reads
system.mem_ctrls.wrPerTurnAround::19                1      0.08%    100.00% # Writes before turning the bus around for reads
system.mem_ctrls.wrPerTurnAround::total          1218                       # Writes before turning the bus around for reads
system.mem_ctrls.totQLat                 100881143500                       # Total ticks spent queuing
system.mem_ctrls.totMemAccLat            293308212250                       # Total ticks spent from burst creation until serviced by the DRAM
system.mem_ctrls.totBusLat                51313885000                       # Total ticks spent in databus transfers
system.mem_ctrls.avgQLat                      9829.81                       # Average queueing delay per DRAM burst
system.mem_ctrls.avgBusLat                    5000.00                       # Average bus latency per DRAM burst
system.mem_ctrls.avgMemAccLat                28579.81                       # Average memory access latency per DRAM burst
system.mem_ctrls.avgRdBW                      1040.73                       # Average DRAM read bandwidth in MiByte/s
system.mem_ctrls.avgWrBW                         1.98                       # Average achieved write bandwidth in MiByte/s
system.mem_ctrls.avgRdBWSys                    128.65                       # Average system read bandwidth in MiByte/s
system.mem_ctrls.avgWrBWSys                      8.55                       # Average system write bandwidth in MiByte/s
system.mem_ctrls.peakBW                      12800.00                       # Theoretical peak bandwidth in MiByte/s
system.mem_ctrls.busUtil                         8.15                       # Data bus utilization in percentage
system.mem_ctrls.busUtilRead                     8.13                       # Data bus utilization in percentage for reads
system.mem_ctrls.busUtilWrite                    0.02                       # Data bus utilization in percentage for writes
system.mem_ctrls.avgRdQLen                       1.00                       # Average read queue length when enqueuing
system.mem_ctrls.avgWrQLen                      27.02                       # Average write queue length when enqueuing
system.mem_ctrls.readRowHits                  9209843                       # Number of row buffer hits during reads
system.mem_ctrls.writeRowHits                   15596                       # Number of row buffer hits during writes
system.mem_ctrls.readRowHitRate                 89.74                       # Row buffer hit rate for reads
system.mem_ctrls.writeRowHitRate                79.84                       # Row buffer hit rate for writes
system.mem_ctrls.avgGap                      54533.50                       # Average gap between requests
system.mem_ctrls.pageHitRate                    89.72                       # Row buffer hit rate, read and write combined
system.mem_ctrls_0.actEnergy               5082551880                       # Energy for activate commands per rank (pJ)
system.mem_ctrls_0.preEnergy               2701440390                       # Energy for precharge commands per rank (pJ)
system.mem_ctrls_0.readEnergy             51821891520                       # Energy for read commands per rank (pJ)
system.mem_ctrls_0.writeEnergy               69864480                       # Energy for write commands per rank (pJ)
system.mem_ctrls_0.refreshEnergy         49801206000.000008                       # Energy for refresh commands per rank (pJ)
system.mem_ctrls_0.actBackEnergy         100013002560                       # Energy for active background per rank (pJ)
system.mem_ctrls_0.preBackEnergy           1193575680                       # Energy for precharge background per rank (pJ)
system.mem_ctrls_0.actPowerDownEnergy    183794735850                       # Energy for active power-down per rank (pJ)
system.mem_ctrls_0.prePowerDownEnergy      2021427360                       # Energy for precharge power-down per rank (pJ)
system.mem_ctrls_0.selfRefreshEnergy         94035585                       # Energy for self refresh per rank (pJ)
system.mem_ctrls_0.totalEnergy           396593790165                       # Total energy per rank (pJ)
system.mem_ctrls_0.averagePower            628.406390                       # Core power per rank (mW)
system.mem_ctrls_0.totalIdleTime         408686640750                       # Total Idle time Per DRAM Rank
system.mem_ctrls_0.memoryStateTime::IDLE    446472500                       # Time in different power states
system.mem_ctrls_0.memoryStateTime::REF   21066378000                       # Time in different power states
system.mem_ctrls_0.memoryStateTime::SREF    352445000                       # Time in different power states
system.mem_ctrls_0.memoryStateTime::PRE_PDN   5266959250                       # Time in different power states
system.mem_ctrls_0.memoryStateTime::ACT  200910633250                       # Time in different power states
system.mem_ctrls_0.memoryStateTime::ACT_PDN 403067236500                       # Time in different power states
system.mem_ctrls_1.actEnergy               2463321420                       # Energy for activate commands per rank (pJ)
system.mem_ctrls_1.preEnergy               1309282590                       # Energy for precharge commands per rank (pJ)
system.mem_ctrls_1.readEnergy             21454336260                       # Energy for read commands per rank (pJ)
system.mem_ctrls_1.writeEnergy               31962060                       # Energy for write commands per rank (pJ)
system.mem_ctrls_1.refreshEnergy         36894995280.000008                       # Energy for refresh commands per rank (pJ)
system.mem_ctrls_1.actBackEnergy          44954667660                       # Energy for active background per rank (pJ)
system.mem_ctrls_1.preBackEnergy           1397942400                       # Energy for precharge background per rank (pJ)
system.mem_ctrls_1.actPowerDownEnergy    134528518650                       # Energy for active power-down per rank (pJ)
system.mem_ctrls_1.prePowerDownEnergy     19772145600                       # Energy for precharge power-down per rank (pJ)
system.mem_ctrls_1.selfRefreshEnergy      45192842655                       # Energy for self refresh per rank (pJ)
system.mem_ctrls_1.totalEnergy           308004887445                       # Total energy per rank (pJ)
system.mem_ctrls_1.averagePower            488.036673                       # Core power per rank (mW)
system.mem_ctrls_1.totalIdleTime         528862033250                       # Total Idle time Per DRAM Rank
system.mem_ctrls_1.memoryStateTime::IDLE   1196556250                       # Time in different power states
system.mem_ctrls_1.memoryStateTime::REF   15623256000                       # Time in different power states
system.mem_ctrls_1.memoryStateTime::SREF 182365344500                       # Time in different power states
system.mem_ctrls_1.memoryStateTime::PRE_PDN  51489356500                       # Time in different power states
system.mem_ctrls_1.memoryStateTime::ACT   85423502250                       # Time in different power states
system.mem_ctrls_1.memoryStateTime::ACT_PDN 295012109000                       # Time in different power states
system.pwrStateResidencyTicks::UNDEFINED 631110124500                       # Cumulative time (in ticks) in various power states
system.cpu_voltage_domain.voltage                   1                       # Voltage in Volts
system.cpu_clk_domain.clock                       500                       # Clock period in ticks
system.cpu.dtb.walker.pwrStateResidencyTicks::UNDEFINED 631110124500                       # Cumulative time (in ticks) in various power states
system.cpu.apic_clk_domain.clock                 8000                       # Clock period in ticks
system.cpu.interrupts.pwrStateResidencyTicks::UNDEFINED 631110124500                       # Cumulative time (in ticks) in various power states
system.cpu.itb.walker.pwrStateResidencyTicks::UNDEFINED 631110124500                       # Cumulative time (in ticks) in various power states
system.cpu.workload.num_syscalls                   77                       # Number of system calls
system.cpu.pwrStateResidencyTicks::ON    631110124500                       # Cumulative time (in ticks) in various power states
system.cpu.numCycles                       1262220112                       # number of cpu cycles simulated
system.cpu.numWorkItemsStarted                      0                       # number of work items this cpu started
system.cpu.numWorkItemsCompleted                    0                       # number of work items this cpu completed
system.cpu.committedInsts                     6759945                       # Number of instructions committed
system.cpu.committedOps                      12031951                       # Number of ops (including micro ops) committed
system.cpu.num_int_alu_accesses              11771453                       # Number of integer alu accesses
system.cpu.num_fp_alu_accesses                 378512                       # Number of float alu accesses
system.cpu.num_func_calls                      165113                       # number of times a function call or return occured
system.cpu.num_conditional_control_insts       811137                       # number of instructions that are conditional controls
system.cpu.num_int_insts                     11771453                       # number of integer instructions
system.cpu.num_fp_insts                        378512                       # number of float instructions
system.cpu.num_int_register_reads            24210996                       # number of times the integer registers were read
system.cpu.num_int_register_writes            9850561                       # number of times the integer registers were written
system.cpu.num_fp_register_reads               404006                       # number of times the floating registers were read
system.cpu.num_fp_register_writes              314383                       # number of times the floating registers were written
system.cpu.num_cc_register_reads              6326142                       # number of times the CC registers were read
system.cpu.num_cc_register_writes             4386697                       # number of times the CC registers were written
system.cpu.num_mem_refs                       2880601                       # number of memory refs
system.cpu.num_load_insts                     2017480                       # Number of load instructions
system.cpu.num_store_insts                     863121                       # Number of store instructions
system.cpu.num_idle_cycles                          0                       # Number of idle cycles
system.cpu.num_busy_cycles                 1262220112                       # Number of busy cycles
system.cpu.not_idle_fraction                        1                       # Percentage of non-idle cycles
system.cpu.idle_fraction                            0                       # Percentage of idle cycles
system.cpu.Branches                           1056039                       # Number of branches fetched
system.cpu.op_class::No_OpClass                 30494      0.25%      0.25% # Class of executed instruction
system.cpu.op_class::IntAlu                   8866650     73.69%     73.95% # Class of executed instruction
system.cpu.op_class::IntMult                    21673      0.18%     74.13% # Class of executed instruction
system.cpu.op_class::IntDiv                     24040      0.20%     74.33% # Class of executed instruction
system.cpu.op_class::FloatAdd                  208493      1.73%     76.06% # Class of executed instruction
system.cpu.op_class::FloatCmp                       0      0.00%     76.06% # Class of executed instruction
system.cpu.op_class::FloatCvt                       0      0.00%     76.06% # Class of executed instruction
system.cpu.op_class::FloatMult                      0      0.00%     76.06% # Class of executed instruction
system.cpu.op_class::FloatMultAcc                   0      0.00%     76.06% # Class of executed instruction
system.cpu.op_class::FloatDiv                       0      0.00%     76.06% # Class of executed instruction
system.cpu.op_class::FloatMisc                      0      0.00%     76.06% # Class of executed instruction
system.cpu.op_class::FloatSqrt                      0      0.00%     76.06% # Class of executed instruction
system.cpu.op_class::SimdAdd                        0      0.00%     76.06% # Class of executed instruction
system.cpu.op_class::SimdAddAcc                     0      0.00%     76.06% # Class of executed instruction
system.cpu.op_class::SimdAlu                        0      0.00%     76.06% # Class of executed instruction
system.cpu.op_class::SimdCmp                        0      0.00%     76.06% # Class of executed instruction
system.cpu.op_class::SimdCvt                        0      0.00%     76.06% # Class of executed instruction
system.cpu.op_class::SimdMisc                       0      0.00%     76.06% # Class of executed instruction
system.cpu.op_class::SimdMult                       0      0.00%     76.06% # Class of executed instruction
system.cpu.op_class::SimdMultAcc                    0      0.00%     76.06% # Class of executed instruction
system.cpu.op_class::SimdShift                      0      0.00%     76.06% # Class of executed instruction
system.cpu.op_class::SimdShiftAcc                   0      0.00%     76.06% # Class of executed instruction
system.cpu.op_class::SimdSqrt                       0      0.00%     76.06% # Class of executed instruction
system.cpu.op_class::SimdFloatAdd                   0      0.00%     76.06% # Class of executed instruction
system.cpu.op_class::SimdFloatAlu                   0      0.00%     76.06% # Class of executed instruction
system.cpu.op_class::SimdFloatCmp                   0      0.00%     76.06% # Class of executed instruction
system.cpu.op_class::SimdFloatCvt                   0      0.00%     76.06% # Class of executed instruction
system.cpu.op_class::SimdFloatDiv                   0      0.00%     76.06% # Class of executed instruction
system.cpu.op_class::SimdFloatMisc                  0      0.00%     76.06% # Class of executed instruction
system.cpu.op_class::SimdFloatMult                  0      0.00%     76.06% # Class of executed instruction
system.cpu.op_class::SimdFloatMultAcc               0      0.00%     76.06% # Class of executed instruction
system.cpu.op_class::SimdFloatSqrt                  0      0.00%     76.06% # Class of executed instruction
system.cpu.op_class::MemRead                  1933060     16.07%     92.12% # Class of executed instruction
system.cpu.op_class::MemWrite                  804640      6.69%     98.81% # Class of executed instruction
system.cpu.op_class::FloatMemRead               84420      0.70%     99.51% # Class of executed instruction
system.cpu.op_class::FloatMemWrite              58481      0.49%    100.00% # Class of executed instruction
system.cpu.op_class::IprAccess                      0      0.00%    100.00% # Class of executed instruction
system.cpu.op_class::InstPrefetch                   0      0.00%    100.00% # Class of executed instruction
system.cpu.op_class::total                   12031951                       # Class of executed instruction
system.membus.snoop_filter.tot_requests             0                       # Total number of requests made to the snoop filter.
system.membus.snoop_filter.hit_single_requests            0                       # Number of requests hitting in the snoop filter with a single holder of the requested data.
system.membus.snoop_filter.hit_multi_requests            0                       # Number of requests hitting in the snoop filter with multiple (>1) holders of the requested data.
system.membus.snoop_filter.tot_snoops               0                       # Total number of snoops made to the snoop filter.
system.membus.snoop_filter.hit_single_snoops            0                       # Number of snoops hitting in the snoop filter with a single holder of the requested data.
system.membus.snoop_filter.hit_multi_snoops            0                       # Number of snoops hitting in the snoop filter with multiple (>1) holders of the requested data.
system.membus.pwrStateResidencyTicks::UNDEFINED 631110124500                       # Cumulative time (in ticks) in various power states
system.membus.trans_dist::ReadReq            10708460                       # Transaction distribution
system.membus.trans_dist::ReadResp           10708459                       # Transaction distribution
system.membus.trans_dist::WriteReq             864426                       # Transaction distribution
system.membus.trans_dist::WriteResp            864426                       # Transaction distribution
system.membus.pkt_count_system.cpu.icache_port::system.mem_ctrls.port     17381931                       # Packet count per connected master and slave (bytes)
system.membus.pkt_count_system.cpu.icache_port::total     17381931                       # Packet count per connected master and slave (bytes)
system.membus.pkt_count_system.cpu.dcache_port::system.mem_ctrls.port      5763840                       # Packet count per connected master and slave (bytes)
system.membus.pkt_count_system.cpu.dcache_port::total      5763840                       # Packet count per connected master and slave (bytes)
system.membus.pkt_count::total               23145771                       # Packet count per connected master and slave (bytes)
system.membus.pkt_size_system.cpu.icache_port::system.mem_ctrls.port     69527720                       # Cumulative packet size per connected master and slave (bytes)
system.membus.pkt_size_system.cpu.icache_port::total     69527720                       # Cumulative packet size per connected master and slave (bytes)
system.membus.pkt_size_system.cpu.dcache_port::system.mem_ctrls.port     17061619                       # Cumulative packet size per connected master and slave (bytes)
system.membus.pkt_size_system.cpu.dcache_port::total     17061619                       # Cumulative packet size per connected master and slave (bytes)
system.membus.pkt_size::total                86589339                       # Cumulative packet size per connected master and slave (bytes)
system.membus.snoops                                0                       # Total snoops (count)
system.membus.snoopTraffic                          0                       # Total snoop traffic (bytes)
system.membus.snoop_fanout::samples          11572886                       # Request fanout histogram
system.membus.snoop_fanout::mean                    0                       # Request fanout histogram
system.membus.snoop_fanout::stdev                   0                       # Request fanout histogram
system.membus.snoop_fanout::underflows              0      0.00%      0.00% # Request fanout histogram
system.membus.snoop_fanout::0                11572886    100.00%    100.00% # Request fanout histogram
system.membus.snoop_fanout::1                       0      0.00%    100.00% # Request fanout histogram
system.membus.snoop_fanout::overflows               0      0.00%    100.00% # Request fanout histogram
system.membus.snoop_fanout::min_value               0                       # Request fanout histogram
system.membus.snoop_fanout::max_value               0                       # Request fanout histogram
system.membus.snoop_fanout::total            11572886                       # Request fanout histogram
system.membus.reqLayer2.occupancy         12437312000                       # Layer occupancy (ticks)
system.membus.reqLayer2.utilization               2.0                       # Layer utilization (%)
system.membus.respLayer1.occupancy        19740009500                       # Layer occupancy (ticks)
system.membus.respLayer1.utilization              3.1                       # Layer utilization (%)
system.membus.respLayer2.occupancy         5418930500                       # Layer occupancy (ticks)
system.membus.respLayer2.utilization              0.9                       # Layer utilization (%)

---------- End Simulation Statistics   ----------
