/home/cosine/ECE511_final_project/gem5/configs/common/CacheConfig.py:48: SyntaxWarning: import * only allowed at module level
  def config_cache(options, system):
gem5 Simulator System.  http://gem5.org
gem5 is copyrighted software; use the --copyright option for details.

gem5 compiled Dec 12 2016 15:00:31
gem5 started Dec 12 2016 16:49:49
gem5 executing on cosine-desktop, pid 17032
command line: /home/cosine/ECE511_final_project/gem5/build/X86/gem5.fast --outdir=/home/cosine/ECE511_final_project/benchmark/fft/m5out/nn /home/cosine/ECE511_final_project/gem5/configs/example/npu_se.py --cpu-type=npu_cpu -c /home/cosine/ECE511_final_project/benchmark/fft/bin/fft.nn.out -o '32768 /home/cosine/ECE511_final_project/benchmark/fft/test.data/output/*.data_fft_gem5_out_nn.data'

Traceback (most recent call last):
  File "<string>", line 1, in <module>
  File "/research/yhtseng2/ECE511_final_project/gem5/src/python/m5/main.py", line 400, in main
  File "/home/cosine/ECE511_final_project/gem5/configs/example/npu_se.py", line 254, in <module>
    system.cpu[npu_idx].cpuPort = system.cpu[i].npuPort
  File "/research/yhtseng2/ECE511_final_project/gem5/src/python/m5/SimObject.py", line 1105, in __getattr__
AttributeError: object 'NpuCPU' has no attribute 'npuPort'
  (C++ object is not yet constructed, so wrapped C++ methods are unavailable.)
